Circuit: * C:\Users\maxri\Documents\UC\Ipre\QE tester\Circuito QE\circuito_2_10-5_inv.asc

Direct Newton iteration for .op point succeeded.

Date: Thu Jan 26 18:23:39 2017
Total elapsed time: 0.072 seconds.

tnom = 27
temp = 27
method = modified trap
totiter = 2098
traniter = 2088
tranpoints = 1045
accept = 1045
rejected = 0
matrix size = 11
fillins = 2
solver = Normal
Matrix Compiler1: 570 bytes object code size  0.2/0.1/[0.0]
Matrix Compiler2: 1.00 KB object code size  0.2/0.3/[0.1]


